6
10.0 10.0 10.0
C       0.000000000000000      0.000000000000000      0.667480000000000
C       0.000000000000000      0.000000000000000     -0.667480000000000
H       0.000000000000000      0.922832000000000      1.237695000000000
H       0.000000000000000     -0.922832000000000      1.237695000000000
H       0.000000000000000      0.922832000000000     -1.237695000000000
H       0.000000000000000     -0.922832000000000     -1.237695000000000
