43
20.18 20.18 20.18
Ag      6.000000000000000      8.045000000000000      8.045000000000000
Ag      8.045000000000000      6.000000000000000      8.045000000000000
Ag      8.045000000000000      8.045000000000000      6.000000000000000
Ag      6.000000000000000      8.045000000000000     12.135000000000000
Ag      8.045000000000000      6.000000000000000     12.135000000000000
Ag      8.045000000000000      8.045000000000000     10.090000000000000
Ag      8.045000000000000      8.045000000000000     14.180000000000000
Ag      6.000000000000000     12.135000000000000      8.045000000000000
Ag      8.045000000000000     10.090000000000000      8.045000000000000
Ag      8.045000000000000     12.135000000000000      6.000000000000000
Ag      6.000000000000000     10.090000000000000     10.090000000000000
Ag      6.000000000000000     12.135000000000000     12.135000000000000
Ag      8.045000000000000     10.090000000000000     12.135000000000000
Ag      8.045000000000000     12.135000000000000     10.090000000000000
Ag      8.045000000000000     12.135000000000000     14.180000000000000
Ag      8.045000000000000     14.180000000000000      8.045000000000000
Ag      8.045000000000000     14.180000000000000     12.135000000000000
Ag     10.090000000000000      8.045000000000000      8.045000000000000
Ag     12.135000000000000      6.000000000000000      8.045000000000000
Ag     12.135000000000000      8.045000000000000      6.000000000000000
Ag     10.090000000000000      6.000000000000000     10.090000000000000
Ag     10.090000000000000      8.045000000000000     12.135000000000000
Ag     12.135000000000000      6.000000000000000     12.135000000000000
Ag     12.135000000000000      8.045000000000000     10.090000000000000
Ag     12.135000000000000      8.045000000000000     14.180000000000000
Ag     10.090000000000000     10.090000000000000      6.000000000000000
Ag     10.090000000000000     12.135000000000000      8.045000000000000
Ag     12.135000000000000     10.090000000000000      8.045000000000000
Ag     12.135000000000000     12.135000000000000      6.000000000000000
Ag     10.090000000000000     10.090000000000000     10.090000000000000
Ag     10.090000000000000     12.135000000000000     12.135000000000000
Ag     12.135000000000000     10.090000000000000     12.135000000000000
Ag     12.135000000000000     12.135000000000000     10.090000000000000
Ag     10.090000000000000     10.090000000000000     14.180000000000000
Ag     12.135000000000000     12.135000000000000     14.180000000000000
Ag     12.135000000000000     14.180000000000000      8.045000000000000
Ag     10.090000000000000     14.180000000000000     10.090000000000000
Ag     12.135000000000000     14.180000000000000     12.135000000000000
Ag     14.180000000000000      8.045000000000000      8.045000000000000
Ag     14.180000000000000      8.045000000000000     12.135000000000000
Ag     14.180000000000000     12.135000000000000      8.045000000000000
Ag     14.180000000000000     10.090000000000000     10.090000000000000
Ag     14.180000000000000     12.135000000000000     12.135000000000000
